  
       XFOIL         Version 6.99
  
 Calculated polar for: pane                                            
  
 1 1 Reynolds number fixed          Mach number fixed         
  
 xtrf =   1.000 (top)        1.000 (bottom)  
 Mach =   0.000     Re =     0.000 e 6     Ncrit =   9.000  9.000
  
   alpha    CL        CD       CDp       CM     Top_Xtr  Bot_Xtr  Top_Itr  Bot_Itr
  ------ -------- --------- --------- -------- -------- -------- -------- --------
<<<<<<< HEAD
   5.000   0.9553   0.00000   0.00160  -0.1358   0.0000   0.0000   0.0000   0.0000
=======
   5.000   0.5761   0.00000   0.01058  -0.0062   0.0000   0.0000   0.0000   0.0000
>>>>>>> ff20daa66add4afb6c37f09f0e34aa3bf71e5659
