  
       XFOIL         Version 6.99
  
 Calculated polar for:                                                 
  
 1 1 Reynolds number fixed          Mach number fixed         
  
 xtrf =   1.000 (top)        1.000 (bottom)  
 Mach =   0.000     Re =     0.750 e 6     Ncrit =   9.000  9.000
  
   alpha    CL        CD       CDp       CM     Top_Xtr  Bot_Xtr  Top_Itr  Bot_Itr
  ------ -------- --------- --------- -------- -------- -------- -------- --------
   5.000   0.7921   0.02331   0.01460  -0.0768   0.5788   0.9214  24.0206 154.5921
   5.000   0.5837   0.01456   0.00502   0.0069   0.1047   0.2700  50.7807 123.4507
   5.000   0.5823   0.01920   0.01033  -0.0001   0.0105   0.3746  72.4099 118.1365
   5.000   0.6152   0.01317   0.00430  -0.0034   0.2139   0.5004  43.8422 132.2094
   5.000   0.6317   0.01365   0.00398  -0.0091   0.3526   0.4939  40.3913 128.8093
   5.000   0.5686   0.01527   0.00567   0.0046   0.0160   0.1786  69.3260 108.8636
   5.000   0.5875   0.01421   0.00495   0.0040   0.1220   0.3784  51.5742 125.4531
   5.000   0.7647   0.01379   0.00046  -0.0662   0.5486   0.6760  40.7026 127.1041
   5.000   0.5652   0.01613   0.00907   0.0030   0.0145   0.9995  70.1316 160.0000
   5.000   1.0000   0.08159   0.10926  -0.1976   0.9067   0.9264   7.8987 155.1875
   5.000   0.5739   0.01467   0.00500   0.0042   0.0136   0.3049  70.5956 117.7886
   5.000   0.6155   0.01415   0.00498  -0.0066   0.3690   0.5290  41.1974 129.1872
   5.000   0.7931   0.01978   0.01052  -0.0742   0.4938   0.8581  25.0955 152.3056
   5.000   0.6357   0.01518   0.00710  -0.0185   0.1843   0.9995  41.5424 160.0000
   5.000   0.5764   0.01568   0.00604   0.0043   0.0171   0.3020  69.0224 116.6842
   5.000   0.8176   0.04106   0.03319  -0.0970   0.7820   0.9614  16.2511 156.7466
   5.000   0.6343   0.01263   0.00435  -0.0190   0.1409   0.9995  46.7187 160.0000
   5.000   0.6418   0.01484   0.00505  -0.0224   0.1969   0.6786  50.3175 136.0632
   5.000   0.5889   0.01471   0.00501   0.0016   0.0629   0.4087  60.0574 123.9178
   5.000   0.5946   0.01361   0.00480   0.0018   0.1009   0.5497  50.3318 136.7544
   5.000   0.5946   0.01361   0.00480   0.0018   0.1009   0.5497  50.3318 136.7544
   5.000   0.5808   0.01388   0.00471   0.0046   0.0710   0.3906  55.3146 126.9489
   5.000   0.5924   0.01429   0.00519   0.0003   0.0939   0.5230  54.2305 132.5797
   5.000   0.5962   0.01461   0.00488   0.0067   0.1361   0.2992  48.5342 124.6885
   5.000   0.6000   0.01423   0.00465   0.0014   0.1934   0.4285  48.5055 126.1330
   5.000   0.5962   0.01461   0.00488   0.0067   0.1361   0.2992  48.5342 124.6885
   5.000   0.5881   0.01589   0.00595   0.0007   0.0131   0.4237  71.1991 122.8764
   5.000   0.5285   0.11983   0.12930  -0.0550   0.5924   0.9983  15.3744 160.0000
   5.000   0.6255   0.01326   0.00429  -0.0060   0.2153   0.5174  43.9960 132.1743
   5.000   0.6255   0.01326   0.00429  -0.0060   0.2153   0.5174  43.9960 132.1743
   5.000   0.5961   0.01421   0.00478   0.0060   0.1276   0.3212  48.3437 126.3278
   5.000   0.5961   0.01421   0.00478   0.0060   0.1276   0.3212  48.3437 126.3278
   5.000   0.6464   0.01653   0.00289  -0.0138   0.3934   0.4551  45.6206 120.0189
   5.000   0.6432   0.01457   0.00396  -0.0108   0.3179   0.4749  42.0201 127.8513
   5.000   0.6111   0.07949   0.05887  -0.0564   0.2700   0.9987  34.1321 160.0000
   5.000   0.8698   0.06917   0.07032  -0.1270   0.8965   0.9839   8.2802 158.7579
   5.000   0.6287   0.01364   0.00425  -0.0049   0.2257   0.4663  43.5699 129.9935
   5.000   0.5694   0.01511   0.00537   0.0046   0.0143   0.1918  70.1640 110.7135
   5.000   0.7299   0.01809   0.00905  -0.0487   0.3494   0.7776  28.3114 149.7487
   5.000   0.5911   0.01465   0.00504   0.0055   0.1099   0.3529  51.9825 125.8387
   5.000   0.5915   0.01405   0.00472   0.0058   0.1172   0.3280  48.9538 126.5626
   5.000   0.6222   0.01358   0.00433  -0.0061   0.2948   0.5010  41.7232 130.7625
   5.000   0.6322   0.01500   0.00391  -0.0050   0.2661   0.4347  46.5585 123.9611
   5.000   0.6022   0.01426   0.00502   0.0003   0.1916   0.4499  46.0175 129.6942
   5.000   0.6287   0.01364   0.00425  -0.0049   0.2257   0.4663  43.5699 129.9935
   5.000   0.5852   0.01465   0.00505   0.0069   0.1178   0.2747  49.8427 123.4023
   5.000   0.4245   0.02804   0.00448  -0.0183   0.6420   0.6906  38.9744 126.0868
   5.000  -0.0576   0.03139   0.00907   0.0911   0.7127   0.8119  26.9615 140.2239
   5.000   0.6750   0.01336   0.00397  -0.0268   0.2168   0.7412  48.7936 133.2055
   5.000   1.0000   0.08159   0.10926  -0.1976   0.9067   0.9264   7.8987 155.1875
   5.000   0.5917   0.01394   0.00490   0.0035   0.1027   0.4447  50.5208 131.4626
   5.000   0.6582   0.01476   0.00401  -0.0142   0.2906   0.4725  42.4481 128.2127
   5.000   0.3840   0.02599   0.00057  -0.0161   0.6022   0.6700  38.5169 127.3956
   5.000   0.6838   0.10046   0.08341  -0.0865   0.0546   0.9996  58.6413 160.0000
   5.000   0.6237   0.01481   0.00452   0.0006   0.1921   0.3683  47.2371 123.9128
   5.000   0.5718   0.01446   0.00511   0.0041   0.0155   0.2756  69.4667 115.2171
   5.000   0.6317   0.01365   0.00398  -0.0091   0.3526   0.4939  40.3913 128.8093
   5.000   0.6010   0.01388   0.00467   0.0046   0.1317   0.3549  46.7936 128.3805
   5.000   0.5937   0.01475   0.00541   0.0010   0.1239   0.4584  52.0734 129.1502
   5.000   0.6446   0.01689   0.00590  -0.0318   0.1868   0.7887  50.1306 140.1963
   5.000   0.6446   0.01689   0.00590  -0.0318   0.1868   0.7887  50.1306 140.1963
   5.000   0.5703   0.01599   0.00872   0.0025   0.0140   0.9995  70.1753 160.0000
   5.000   0.6317   0.01365   0.00398  -0.0091   0.3526   0.4939  40.3913 128.8093
   5.000   0.6023   0.05108   0.04748  -0.0104   0.0105   0.9995  72.4321 160.0000
   5.000   0.6351   0.01418   0.00440  -0.0044   0.2115   0.4246  43.6485 128.9220
   5.000   0.6351   0.01418   0.00440  -0.0044   0.2115   0.4246  43.6485 128.9220
   5.000   0.7932   0.01980   0.01054  -0.0743   0.4940   0.8581  25.0882 152.3094
   5.000   0.5896   0.01449   0.00479   0.0066   0.1187   0.3061  51.8536 122.5649
   5.000   0.5323   0.12615   0.13671  -0.0576   0.5100   0.9981  18.0460 160.0000
   5.000   0.6418   0.01484   0.00505  -0.0224   0.1969   0.6786  50.3175 136.0632
   5.000   0.6799   0.01555   0.00272  -0.0250   0.3805   0.5288  46.6515 122.4220
   5.000   0.6771   0.01502   0.00296  -0.0249   0.4055   0.5104  40.4419 127.0787
   5.000   0.5865   0.01686   0.00799  -0.0002   0.0142   0.4304  70.2325 122.4971
   5.000   0.5788   0.01430   0.00491   0.0055   0.0714   0.3175  55.6239 122.8130
   5.000   0.7299   0.01809   0.00905  -0.0487   0.3494   0.7776  28.3114 149.7487
   5.000   0.5611   0.07748   0.07019  -0.0475   0.0121   0.9191  71.2058 153.8406
   5.000   0.6485   0.01326   0.00463  -0.0233   0.2278   0.9528  36.5534 156.2614
   5.000   0.3564   0.02475  -0.00116  -0.0115   0.5946   0.6737  39.4704 126.7293
   5.000   0.3564   0.02475  -0.00116  -0.0115   0.5946   0.6737  39.4704 126.7293
   5.000   0.5767   0.01499   0.00532   0.0068   0.0817   0.2214  55.1271 117.3887
   5.000   0.5966   0.01413   0.00467   0.0050   0.1569   0.3433  46.9409 126.2237
   5.000   0.6186   0.01427   0.00453   0.0003   0.1812   0.4089  45.8623 128.3537
   5.000   0.6768   0.01427   0.00321  -0.0303   0.5048   0.5853  36.3517 130.1378
   5.000   0.6285   0.01334   0.00438  -0.0052   0.1729   0.5108  45.9789 130.7931
   5.000   0.5732   0.03953   0.04155  -0.0074   0.0108   0.9995  71.5770 160.0000
   5.000   0.5863   0.01859   0.01000  -0.0022   0.0105   0.4754  72.3457 124.7645
   5.000   0.5855   0.03666   0.02824  -0.0080   0.1718   0.9995  41.5390 160.0000
   5.000   0.6347   0.01393   0.00496  -0.0161   0.5036   0.5871  34.1454 132.4012
   5.000   0.6347   0.01393   0.00496  -0.0161   0.5036   0.5871  34.1454 132.4012
   5.000   0.5040   0.46215   0.36945  -0.1467   0.9746   0.9972   2.3862 160.0000
   5.000   0.6075   0.01876   0.00841  -0.0359   0.7425   0.8684  18.0621 151.5705
   5.000   0.5748   0.01492   0.00505   0.0048   0.0200   0.2808  68.0540 116.7051
   5.000   0.5586   0.25026   0.25824  -0.1518   0.9134   0.9771   7.7503 158.0399
   5.000   0.6017   0.01363   0.00451  -0.0001   0.2179   0.4584  46.9476 127.4337
   5.000   0.6108   0.01476   0.00556  -0.0077   0.1665   0.5729  50.3521 133.2807
   5.000   0.5929   0.01446   0.00481   0.0050   0.1795   0.3395  46.5427 125.4169
   5.000   0.8240   0.01793   0.00955  -0.0918   0.7054   0.8559  18.3629 151.3981
   5.000   0.5761   0.01503   0.00532   0.0065   0.0751   0.2212  55.0320 118.0286
   5.000   0.5971   0.04622   0.04204  -0.0085   0.0103   0.9995  72.6512 160.0000
   5.000   0.6582   0.01476   0.00401  -0.0142   0.2906   0.4725  42.4481 128.2127
   5.000   0.5751   0.02225   0.01411  -0.0002   0.0115   0.9995  71.1003 160.0000
   5.000   0.6350   0.01490   0.00409  -0.0066   0.2468   0.4663  48.3565 123.8740
   5.000   0.8794   0.09384   0.15881  -0.1567   0.9439   0.9885   5.7529 159.0784
   5.000   0.5796   0.01453   0.00495   0.0059   0.0924   0.2861  54.1680 120.9384
   5.000   0.5993   0.01370   0.00447   0.0038   0.1585   0.3769  46.7172 127.6448
   5.000   0.5770   0.02048   0.01243  -0.0021   0.0651   0.9995  58.6685 160.0000
   5.000  -0.1687   0.12671   0.05584   0.0633   0.5956   0.6668  31.9633 135.2785
   5.000   0.6500   0.01473   0.00464  -0.0131   0.2149   0.5483  46.2368 131.2246
   5.000   0.5916   0.01049   0.00173  -0.0250   0.5124   0.8030  28.5937 145.7111
   5.000   0.6789   0.01436   0.00250  -0.0312   0.5072   0.5951  41.8277 124.7156
   5.000   0.6009   0.05074   0.04716  -0.0101   0.0102   0.9995  71.7256 160.0000
   5.000   0.5909   0.01466   0.00492   0.0065   0.1173   0.3109  51.1010 124.2917
   5.000   1.1134   0.09375   0.16263  -0.2906   0.8706   0.8744  11.0494 151.6266
   5.000   0.6101   0.01410   0.00439  -0.0021   0.3403   0.4329  41.6128 125.4010
   5.000   0.6155   0.01415   0.00498  -0.0066   0.3690   0.5290  41.1974 129.1872
   5.000   1.1134   0.09375   0.16263  -0.2906   0.8706   0.8744  11.0494 151.6266
   5.000   0.5704   0.01532   0.00520   0.0052   0.0225   0.1975  67.5206 111.6885
   5.000   0.5764   0.01568   0.00604   0.0043   0.0171   0.3020  69.0224 116.6842
   5.000   0.5716   0.02191   0.01433   0.0014   0.0114   0.9995  71.1970 160.0000
   5.000   0.6154   0.01335   0.00467  -0.0159   0.0552   0.8691  60.8516 149.1497
   5.000   0.5732   0.01995   0.01028   0.0022   0.0109   0.2662  71.8994 111.7582
   5.000   0.5673   0.01231   0.00506   0.0046   0.0170   0.9995  68.6509 160.0000
   5.000   0.5616   0.01545   0.01314   0.0019   0.0115   0.9995  71.1283 160.0000
   5.000   0.5761   0.01583   0.00611   0.0045   0.0173   0.2967  69.1398 115.7493
   5.000   0.5732   0.01995   0.01028   0.0022   0.0109   0.2662  71.8994 111.7582
   5.000   0.5851   0.01878   0.01012  -0.0015   0.0105   0.4394  72.3626 122.3872
   5.000   0.5888   0.02008   0.01063  -0.0037   0.0105   0.4800  72.1850 125.2791
   5.000   0.5745   0.02112   0.01062   0.0019   0.0107   0.2830  72.0252 112.8904
   5.000   0.4066   0.10591   0.08299  -0.0285   0.0146   0.9511  70.1222 155.7901
   5.000   0.4066   0.10591   0.08299  -0.0285   0.0146   0.9511  70.1222 155.7901
   5.000   0.5596   0.02804   0.02748  -0.0035   0.0113   0.9995  71.0221 160.0000
   5.000   0.5615   0.01554   0.01317   0.0019   0.0115   0.9995  71.1167 160.0000
   5.000   0.5766   0.02072   0.01090   0.0014   0.0121   0.3360  70.8720 116.8105
   5.000   0.5783   0.02848   0.02280  -0.0014   0.0107   0.9995  71.3819 160.0000
   5.000   0.5969   0.04699   0.04282  -0.0085   0.0108   0.9995  71.6932 160.0000
   5.000   0.5775   0.01543   0.00707   0.0028   0.0157   0.3755  69.1565 120.3932
   5.000   0.0937   0.04059   0.01759   0.0587   0.6812   0.8172  24.4602 146.1017
   5.000   0.5641   0.02661   0.02480  -0.0035   0.0110   0.9995  72.0112 160.0000
   5.000  -0.4229   0.03497   0.00325   0.1612   0.4814   0.7665  40.8541 138.4455
   5.000   0.5741   0.02718   0.02043  -0.0011   0.0116   0.9995  71.1263 160.0000
   5.000   0.5714   0.02181   0.01442   0.0014   0.0113   0.9995  71.2705 160.0000
   5.000   0.7206   0.14798   0.15405  -0.1635   0.8914   0.9957   8.9231 159.5602
   5.000   0.7330   0.01287   0.00249  -0.0510   0.4858   0.7089  37.8712 134.2209
   5.000   0.5596   0.02804   0.02748  -0.0035   0.0113   0.9995  71.0221 160.0000
   5.000   0.5673   0.01231   0.00476   0.0047   0.0155   0.9995  69.4275 160.0000
   5.000   0.5715   0.02189   0.01433   0.0014   0.0114   0.9995  71.2042 160.0000
   5.000   0.6505   0.01228   0.00393  -0.0169   0.2105   0.6815  42.1617 138.2569
   5.000   0.5823   0.01508   0.00534   0.0072   0.1108   0.2507  51.0141 121.3938
   5.000   0.9982   0.08503   0.12902  -0.2026   0.9084   0.9298   7.7071 155.4822
   5.000   0.6001   0.01503   0.00511  -0.0016   0.1826   0.4600  50.8453 126.0352
   5.000   0.6287   0.01364   0.00425  -0.0049   0.2257   0.4663  43.5699 129.9935
   5.000   0.6285   0.01334   0.00438  -0.0052   0.1729   0.5108  45.9789 130.7931
   5.000   0.5938   0.01406   0.00470   0.0045   0.1694   0.3579  46.7438 126.1680
   5.000   0.5335   0.01235   0.00500   0.0038   0.0149   0.9788  69.7837 157.9958
   5.000   0.5888   0.03538   0.03024  -0.0042   0.0104   0.9995  72.3923 160.0000
   5.000   0.5760   0.01581   0.00728   0.0034   0.0157   0.3355  69.2629 117.6486
   5.000   0.5694   0.01527   0.00651   0.0037   0.0155   0.2199  69.1189 111.0902
   5.000   0.5899   0.01826   0.00946  -0.0042   0.0133   0.5946  70.4623 133.1327
   5.000   0.6004   0.05034   0.04662  -0.0099   0.0103   0.9995  71.7519 160.0000
   5.000   0.5888   0.03538   0.03024  -0.0042   0.0104   0.9995  72.3923 160.0000
   5.000   0.5901   0.01211   0.00848  -0.0089   0.0108   0.6119  72.1752 133.2707
   5.000   0.6015   0.05080   0.04721  -0.0102   0.0103   0.9995  71.6386 160.0000
   5.000   0.6023   0.05108   0.04748  -0.0104   0.0105   0.9995  72.4321 160.0000
   5.000   0.5866   0.03585   0.03087  -0.0035   0.0104   0.9995  72.4973 160.0000
